
---------- Begin Simulation Statistics ----------
simSeconds                                   0.055933                       # Number of seconds simulated (Second)
simTicks                                  55932586500                       # Number of ticks simulated (Tick)
finalTick                                 55932586500                       # Number of ticks from beginning of simulation (restored from checkpoints and never reset) (Tick)
simFreq                                  1000000000000                       # The number of ticks per simulated second ((Tick/Second))
hostSeconds                                   1025.81                       # Real time elapsed on the host (Second)
hostTickRate                                 54525148                       # The number of ticks simulated per host second (ticks/s) ((Tick/Second))
hostMemory                                     655976                       # Number of bytes of host memory used (Byte)
simInsts                                    191083655                       # Number of instructions simulated (Count)
simOps                                      408634013                       # Number of ops (including micro ops) simulated (Count)
hostInstRate                                   186275                       # Simulator instruction rate (inst/s) ((Count/Second))
hostOpRate                                     398351                       # Simulator op (including micro ops) rate (op/s) ((Count/Second))
system.clk_domain.clock                          1000                       # Clock period in ticks (Tick)
system.cpu.numCycles                        111865174                       # Number of cpu cycles simulated (Cycle)
system.cpu.numWorkItemsStarted                      0                       # Number of work items this cpu started (Count)
system.cpu.numWorkItemsCompleted                    0                       # Number of work items this cpu completed (Count)
system.cpu.instsAdded                       408896254                       # Number of instructions added to the IQ (excludes non-spec) (Count)
system.cpu.nonSpecInstsAdded                       21                       # Number of non-speculative instructions added to the IQ (Count)
system.cpu.instsIssued                      409502064                       # Number of instructions issued (Count)
system.cpu.squashedInstsIssued                   2068                       # Number of squashed instructions issued (Count)
system.cpu.squashedInstsExamined               262136                       # Number of squashed instructions iterated over during squash; mainly for profiling (Count)
system.cpu.squashedOperandsExamined            316736                       # Number of squashed operands that are examined and possibly removed from graph (Count)
system.cpu.squashedNonSpecRemoved                   3                       # Number of squashed non-spec instructions that were removed (Count)
system.cpu.numIssuedDist::samples           111781863                       # Number of insts issued each cycle
system.cpu.numIssuedDist::mean               3.663403                       # Number of insts issued each cycle
system.cpu.numIssuedDist::stdev              2.324965                       # Number of insts issued each cycle
system.cpu.numIssuedDist::underflows                0      0.00%      0.00% # Number of insts issued each cycle
system.cpu.numIssuedDist::0                   7695115      6.88%      6.88% # Number of insts issued each cycle
system.cpu.numIssuedDist::1                  14292249     12.79%     19.67% # Number of insts issued each cycle
system.cpu.numIssuedDist::2                  19727489     17.65%     37.32% # Number of insts issued each cycle
system.cpu.numIssuedDist::3                  14965566     13.39%     50.71% # Number of insts issued each cycle
system.cpu.numIssuedDist::4                  17679835     15.82%     66.52% # Number of insts issued each cycle
system.cpu.numIssuedDist::5                  11576263     10.36%     76.88% # Number of insts issued each cycle
system.cpu.numIssuedDist::6                   8852483      7.92%     84.80% # Number of insts issued each cycle
system.cpu.numIssuedDist::7                   6800318      6.08%     90.88% # Number of insts issued each cycle
system.cpu.numIssuedDist::8                  10192545      9.12%    100.00% # Number of insts issued each cycle
system.cpu.numIssuedDist::overflows                 0      0.00%    100.00% # Number of insts issued each cycle
system.cpu.numIssuedDist::min_value                 0                       # Number of insts issued each cycle
system.cpu.numIssuedDist::max_value                 8                       # Number of insts issued each cycle
system.cpu.numIssuedDist::total             111781863                       # Number of insts issued each cycle
system.cpu.statFuBusy::No_OpClass                   0      0.00%      0.00% # attempts to use FU when none available (Count)
system.cpu.statFuBusy::IntAlu                 2726427     50.10%     50.10% # attempts to use FU when none available (Count)
system.cpu.statFuBusy::IntMult                      0      0.00%     50.10% # attempts to use FU when none available (Count)
system.cpu.statFuBusy::IntDiv                       0      0.00%     50.10% # attempts to use FU when none available (Count)
system.cpu.statFuBusy::FloatAdd                     0      0.00%     50.10% # attempts to use FU when none available (Count)
system.cpu.statFuBusy::FloatCmp                     0      0.00%     50.10% # attempts to use FU when none available (Count)
system.cpu.statFuBusy::FloatCvt                     0      0.00%     50.10% # attempts to use FU when none available (Count)
system.cpu.statFuBusy::FloatMult                    0      0.00%     50.10% # attempts to use FU when none available (Count)
system.cpu.statFuBusy::FloatMultAcc                 0      0.00%     50.10% # attempts to use FU when none available (Count)
system.cpu.statFuBusy::FloatDiv                     0      0.00%     50.10% # attempts to use FU when none available (Count)
system.cpu.statFuBusy::FloatMisc                    0      0.00%     50.10% # attempts to use FU when none available (Count)
system.cpu.statFuBusy::FloatSqrt                    0      0.00%     50.10% # attempts to use FU when none available (Count)
system.cpu.statFuBusy::SimdAdd                      0      0.00%     50.10% # attempts to use FU when none available (Count)
system.cpu.statFuBusy::SimdAddAcc                   0      0.00%     50.10% # attempts to use FU when none available (Count)
system.cpu.statFuBusy::SimdAlu                     22      0.00%     50.10% # attempts to use FU when none available (Count)
system.cpu.statFuBusy::SimdCmp                      0      0.00%     50.10% # attempts to use FU when none available (Count)
system.cpu.statFuBusy::SimdCvt                     17      0.00%     50.10% # attempts to use FU when none available (Count)
system.cpu.statFuBusy::SimdMisc                     8      0.00%     50.10% # attempts to use FU when none available (Count)
system.cpu.statFuBusy::SimdMult                     0      0.00%     50.10% # attempts to use FU when none available (Count)
system.cpu.statFuBusy::SimdMultAcc                  0      0.00%     50.10% # attempts to use FU when none available (Count)
system.cpu.statFuBusy::SimdShift                    1      0.00%     50.10% # attempts to use FU when none available (Count)
system.cpu.statFuBusy::SimdShiftAcc                 0      0.00%     50.10% # attempts to use FU when none available (Count)
system.cpu.statFuBusy::SimdDiv                      0      0.00%     50.10% # attempts to use FU when none available (Count)
system.cpu.statFuBusy::SimdSqrt                     0      0.00%     50.10% # attempts to use FU when none available (Count)
system.cpu.statFuBusy::SimdFloatAdd                 0      0.00%     50.10% # attempts to use FU when none available (Count)
system.cpu.statFuBusy::SimdFloatAlu                 0      0.00%     50.10% # attempts to use FU when none available (Count)
system.cpu.statFuBusy::SimdFloatCmp                 0      0.00%     50.10% # attempts to use FU when none available (Count)
system.cpu.statFuBusy::SimdFloatCvt                 0      0.00%     50.10% # attempts to use FU when none available (Count)
system.cpu.statFuBusy::SimdFloatDiv                 0      0.00%     50.10% # attempts to use FU when none available (Count)
system.cpu.statFuBusy::SimdFloatMisc                0      0.00%     50.10% # attempts to use FU when none available (Count)
system.cpu.statFuBusy::SimdFloatMult                0      0.00%     50.10% # attempts to use FU when none available (Count)
system.cpu.statFuBusy::SimdFloatMultAcc             0      0.00%     50.10% # attempts to use FU when none available (Count)
system.cpu.statFuBusy::SimdFloatSqrt                0      0.00%     50.10% # attempts to use FU when none available (Count)
system.cpu.statFuBusy::SimdReduceAdd                0      0.00%     50.10% # attempts to use FU when none available (Count)
system.cpu.statFuBusy::SimdReduceAlu                0      0.00%     50.10% # attempts to use FU when none available (Count)
system.cpu.statFuBusy::SimdReduceCmp                0      0.00%     50.10% # attempts to use FU when none available (Count)
system.cpu.statFuBusy::SimdFloatReduceAdd            0      0.00%     50.10% # attempts to use FU when none available (Count)
system.cpu.statFuBusy::SimdFloatReduceCmp            0      0.00%     50.10% # attempts to use FU when none available (Count)
system.cpu.statFuBusy::SimdAes                      0      0.00%     50.10% # attempts to use FU when none available (Count)
system.cpu.statFuBusy::SimdAesMix                   0      0.00%     50.10% # attempts to use FU when none available (Count)
system.cpu.statFuBusy::SimdSha1Hash                 0      0.00%     50.10% # attempts to use FU when none available (Count)
system.cpu.statFuBusy::SimdSha1Hash2                0      0.00%     50.10% # attempts to use FU when none available (Count)
system.cpu.statFuBusy::SimdSha256Hash               0      0.00%     50.10% # attempts to use FU when none available (Count)
system.cpu.statFuBusy::SimdSha256Hash2              0      0.00%     50.10% # attempts to use FU when none available (Count)
system.cpu.statFuBusy::SimdShaSigma2                0      0.00%     50.10% # attempts to use FU when none available (Count)
system.cpu.statFuBusy::SimdShaSigma3                0      0.00%     50.10% # attempts to use FU when none available (Count)
system.cpu.statFuBusy::SimdPredAlu                  0      0.00%     50.10% # attempts to use FU when none available (Count)
system.cpu.statFuBusy::MemRead                1359271     24.98%     75.07% # attempts to use FU when none available (Count)
system.cpu.statFuBusy::MemWrite                676955     12.44%     87.51% # attempts to use FU when none available (Count)
system.cpu.statFuBusy::FloatMemRead            679586     12.49%    100.00% # attempts to use FU when none available (Count)
system.cpu.statFuBusy::FloatMemWrite              203      0.00%    100.00% # attempts to use FU when none available (Count)
system.cpu.statFuBusy::IprAccess                    0      0.00%    100.00% # attempts to use FU when none available (Count)
system.cpu.statFuBusy::InstPrefetch                 0      0.00%    100.00% # attempts to use FU when none available (Count)
system.cpu.statIssuedInstType_0::No_OpClass     12914464      3.15%      3.15% # Number of instructions issued per FU type, per thread (Count)
system.cpu.statIssuedInstType_0::IntAlu     288468177     70.44%     73.60% # Number of instructions issued per FU type, per thread (Count)
system.cpu.statIssuedInstType_0::IntMult       679431      0.17%     73.76% # Number of instructions issued per FU type, per thread (Count)
system.cpu.statIssuedInstType_0::IntDiv       4757320      1.16%     74.92% # Number of instructions issued per FU type, per thread (Count)
system.cpu.statIssuedInstType_0::FloatAdd          623      0.00%     74.93% # Number of instructions issued per FU type, per thread (Count)
system.cpu.statIssuedInstType_0::FloatCmp            0      0.00%     74.93% # Number of instructions issued per FU type, per thread (Count)
system.cpu.statIssuedInstType_0::FloatCvt           32      0.00%     74.93% # Number of instructions issued per FU type, per thread (Count)
system.cpu.statIssuedInstType_0::FloatMult            0      0.00%     74.93% # Number of instructions issued per FU type, per thread (Count)
system.cpu.statIssuedInstType_0::FloatMultAcc            0      0.00%     74.93% # Number of instructions issued per FU type, per thread (Count)
system.cpu.statIssuedInstType_0::FloatDiv            0      0.00%     74.93% # Number of instructions issued per FU type, per thread (Count)
system.cpu.statIssuedInstType_0::FloatMisc            0      0.00%     74.93% # Number of instructions issued per FU type, per thread (Count)
system.cpu.statIssuedInstType_0::FloatSqrt            0      0.00%     74.93% # Number of instructions issued per FU type, per thread (Count)
system.cpu.statIssuedInstType_0::SimdAdd      2718032      0.66%     75.59% # Number of instructions issued per FU type, per thread (Count)
system.cpu.statIssuedInstType_0::SimdAddAcc            0      0.00%     75.59% # Number of instructions issued per FU type, per thread (Count)
system.cpu.statIssuedInstType_0::SimdAlu      2719062      0.66%     76.25% # Number of instructions issued per FU type, per thread (Count)
system.cpu.statIssuedInstType_0::SimdCmp            0      0.00%     76.25% # Number of instructions issued per FU type, per thread (Count)
system.cpu.statIssuedInstType_0::SimdCvt      5436440      1.33%     77.58% # Number of instructions issued per FU type, per thread (Count)
system.cpu.statIssuedInstType_0::SimdMisc      2718730      0.66%     78.24% # Number of instructions issued per FU type, per thread (Count)
system.cpu.statIssuedInstType_0::SimdMult            0      0.00%     78.24% # Number of instructions issued per FU type, per thread (Count)
system.cpu.statIssuedInstType_0::SimdMultAcc            0      0.00%     78.24% # Number of instructions issued per FU type, per thread (Count)
system.cpu.statIssuedInstType_0::SimdShift          433      0.00%     78.24% # Number of instructions issued per FU type, per thread (Count)
system.cpu.statIssuedInstType_0::SimdShiftAcc            0      0.00%     78.24% # Number of instructions issued per FU type, per thread (Count)
system.cpu.statIssuedInstType_0::SimdDiv            0      0.00%     78.24% # Number of instructions issued per FU type, per thread (Count)
system.cpu.statIssuedInstType_0::SimdSqrt            0      0.00%     78.24% # Number of instructions issued per FU type, per thread (Count)
system.cpu.statIssuedInstType_0::SimdFloatAdd            0      0.00%     78.24% # Number of instructions issued per FU type, per thread (Count)
system.cpu.statIssuedInstType_0::SimdFloatAlu            0      0.00%     78.24% # Number of instructions issued per FU type, per thread (Count)
system.cpu.statIssuedInstType_0::SimdFloatCmp            0      0.00%     78.24% # Number of instructions issued per FU type, per thread (Count)
system.cpu.statIssuedInstType_0::SimdFloatCvt            0      0.00%     78.24% # Number of instructions issued per FU type, per thread (Count)
system.cpu.statIssuedInstType_0::SimdFloatDiv            0      0.00%     78.24% # Number of instructions issued per FU type, per thread (Count)
system.cpu.statIssuedInstType_0::SimdFloatMisc            0      0.00%     78.24% # Number of instructions issued per FU type, per thread (Count)
system.cpu.statIssuedInstType_0::SimdFloatMult            0      0.00%     78.24% # Number of instructions issued per FU type, per thread (Count)
system.cpu.statIssuedInstType_0::SimdFloatMultAcc            0      0.00%     78.24% # Number of instructions issued per FU type, per thread (Count)
system.cpu.statIssuedInstType_0::SimdFloatSqrt            0      0.00%     78.24% # Number of instructions issued per FU type, per thread (Count)
system.cpu.statIssuedInstType_0::SimdReduceAdd            0      0.00%     78.24% # Number of instructions issued per FU type, per thread (Count)
system.cpu.statIssuedInstType_0::SimdReduceAlu            0      0.00%     78.24% # Number of instructions issued per FU type, per thread (Count)
system.cpu.statIssuedInstType_0::SimdReduceCmp            0      0.00%     78.24% # Number of instructions issued per FU type, per thread (Count)
system.cpu.statIssuedInstType_0::SimdFloatReduceAdd            0      0.00%     78.24% # Number of instructions issued per FU type, per thread (Count)
system.cpu.statIssuedInstType_0::SimdFloatReduceCmp            0      0.00%     78.24% # Number of instructions issued per FU type, per thread (Count)
system.cpu.statIssuedInstType_0::SimdAes            0      0.00%     78.24% # Number of instructions issued per FU type, per thread (Count)
system.cpu.statIssuedInstType_0::SimdAesMix            0      0.00%     78.24% # Number of instructions issued per FU type, per thread (Count)
system.cpu.statIssuedInstType_0::SimdSha1Hash            0      0.00%     78.24% # Number of instructions issued per FU type, per thread (Count)
system.cpu.statIssuedInstType_0::SimdSha1Hash2            0      0.00%     78.24% # Number of instructions issued per FU type, per thread (Count)
system.cpu.statIssuedInstType_0::SimdSha256Hash            0      0.00%     78.24% # Number of instructions issued per FU type, per thread (Count)
system.cpu.statIssuedInstType_0::SimdSha256Hash2            0      0.00%     78.24% # Number of instructions issued per FU type, per thread (Count)
system.cpu.statIssuedInstType_0::SimdShaSigma2            0      0.00%     78.24% # Number of instructions issued per FU type, per thread (Count)
system.cpu.statIssuedInstType_0::SimdShaSigma3            0      0.00%     78.24% # Number of instructions issued per FU type, per thread (Count)
system.cpu.statIssuedInstType_0::SimdPredAlu            0      0.00%     78.24% # Number of instructions issued per FU type, per thread (Count)
system.cpu.statIssuedInstType_0::MemRead     37430858      9.14%     87.39% # Number of instructions issued per FU type, per thread (Count)
system.cpu.statIssuedInstType_0::MemWrite     37386199      9.13%     96.51% # Number of instructions issued per FU type, per thread (Count)
system.cpu.statIssuedInstType_0::FloatMemRead     10193743      2.49%     99.00% # Number of instructions issued per FU type, per thread (Count)
system.cpu.statIssuedInstType_0::FloatMemWrite      4078520      1.00%    100.00% # Number of instructions issued per FU type, per thread (Count)
system.cpu.statIssuedInstType_0::IprAccess            0      0.00%    100.00% # Number of instructions issued per FU type, per thread (Count)
system.cpu.statIssuedInstType_0::InstPrefetch            0      0.00%    100.00% # Number of instructions issued per FU type, per thread (Count)
system.cpu.statIssuedInstType_0::total      409502064                       # Number of instructions issued per FU type, per thread (Count)
system.cpu.issueRate                         3.660675                       # Inst issue rate ((Count/Cycle))
system.cpu.fuBusy                             5442490                       # FU busy when requested (Count)
system.cpu.fuBusyRate                        0.013291                       # FU busy rate (busy events/executed inst) ((Count/Count))
system.cpu.intInstQueueReads                879818578                       # Number of integer instruction queue reads (Count)
system.cpu.intInstQueueWrites               381961228                       # Number of integer instruction queue writes (Count)
system.cpu.intInstQueueWakeupAccesses       381616890                       # Number of integer instruction queue wakeup accesses (Count)
system.cpu.fpInstQueueReads                  56411968                       # Number of floating instruction queue reads (Count)
system.cpu.fpInstQueueWrites                 27198268                       # Number of floating instruction queue writes (Count)
system.cpu.fpInstQueueWakeupAccesses         27185780                       # Number of floating instruction queue wakeup accesses (Count)
system.cpu.vecInstQueueReads                        0                       # Number of vector instruction queue reads (Count)
system.cpu.vecInstQueueWrites                       0                       # Number of vector instruction queue writes (Count)
system.cpu.vecInstQueueWakeupAccesses               0                       # Number of vector instruction queue wakeup accesses (Count)
system.cpu.intAluAccesses                   373484208                       # Number of integer alu accesses (Count)
system.cpu.fpAluAccesses                     28545882                       # Number of floating point alu accesses (Count)
system.cpu.vecAluAccesses                           0                       # Number of vector alu accesses (Count)
system.cpu.idleCycles                               0                       # Number of cycles IEW is idle (Cycle)
system.cpu.squashCycles                          5944                       # Number of cycles IEW is squashing (Cycle)
system.cpu.blockCycles                          94803                       # Number of cycles IEW is blocking (Cycle)
system.cpu.unblockCycles                         4957                       # Number of cycles IEW is unblocking (Cycle)
system.cpu.dispatchedInsts                  408896275                       # Number of instructions dispatched to IQ (Count)
system.cpu.dispSquashedInsts                      300                       # Number of squashed instructions skipped by dispatch (Count)
system.cpu.dispLoadInsts                     46950673                       # Number of dispatched load instructions (Count)
system.cpu.dispStoreInsts                    41471566                       # Number of dispatched store instructions (Count)
system.cpu.dispNonSpecInsts                        21                       # Number of dispatched non-speculative instructions (Count)
system.cpu.iqFullEvents                           943                       # Number of times the IQ has become full, causing a stall (Count)
system.cpu.lsqFullEvents                         3617                       # Number of times the LSQ has become full, causing a stall (Count)
system.cpu.memOrderViolationEvents               1086                       # Number of memory order violations (Count)
system.cpu.predictedTakenIncorrect               1915                       # Number of branches that were predicted taken incorrectly (Count)
system.cpu.predictedNotTakenIncorrect            3927                       # Number of branches that were predicted not taken incorrectly (Count)
system.cpu.branchMispredicts                     5842                       # Number of branch mispredicts detected at execute (Count)
system.cpu.numInsts                         409489276                       # Number of executed instructions (Count)
system.cpu.numLoadInsts                      47620910                       # Number of load instructions executed (Count)
system.cpu.numSquashedInsts                     12785                       # Number of squashed instructions skipped in execute (Count)
system.cpu.numSwp                                   0                       # Number of swp insts executed (Count)
system.cpu.numNop                                   0                       # Number of nop insts executed (Count)
system.cpu.numRefs                           89084498                       # Number of memory reference insts executed (Count)
system.cpu.numBranches                       40137625                       # Number of branches executed (Count)
system.cpu.numStoreInsts                     41463588                       # Number of stores executed (Count)
system.cpu.numRate                           3.660561                       # Inst execution rate ((Count/Cycle))
system.cpu.instsToCommit                    408805144                       # Cumulative count of insts sent to commit (Count)
system.cpu.writebackCount                   408802670                       # Cumulative count of insts written-back (Count)
system.cpu.producerInst                     270772216                       # Number of instructions producing a value (Count)
system.cpu.consumerInst                     480943540                       # Number of instructions consuming a value (Count)
system.cpu.wbRate                            3.654423                       # Insts written-back per cycle ((Count/Cycle))
system.cpu.wbFanout                          0.563002                       # Average fanout of values written-back ((Count/Count))
system.cpu.emptyCycles                         770150                       # Number of cycles where ShadowBuffer is empty (Cycle)
system.cpu.activeCycles                     111011713                       # Number of cycles where ShadowBuffer is not empty (Cycle)
system.cpu.branchesInserted                  40152095                       # Number of branches inserted into ShadowBuffer (Count)
system.cpu.branchesCleared                   40129111                       # Number of branches cleared from ShadowBuffer (not mispredicted) (Count)
system.cpu.timesMispredicted                     4479                       # Number of times mispredicts have been handled (Count)
system.cpu.entriesSquashed                      23248                       # Number of entries squashed due to mispredicts (Count)
system.cpu.loadsSquashed                        19000                       # Number of loads squashed due to mispredicts (Count)
system.cpu.loadsInserted                     46265197                       # Number of entries inserted into ReleaseQueue (Count)
system.cpu.loadsCleared                      43509479                       # Number of entries cleared from ReleaseQueue (Count)
system.cpu.abnormalBranches                      2718                       # Number of branches not cleared by misprediction or step (Count)
system.cpu.abnormalLoads                      2736698                       # Number of loads not cleared by misprediction or step (Count)
system.cpu.timesIdled                             921                       # Number of times that the entire CPU went into an idle state and unscheduled itself (Count)
system.cpu.idleCycles                           83311                       # Total number of cycles that the CPU has spent unscheduled due to idling (Cycle)
system.cpu.committedInsts                   191083655                       # Number of Instructions Simulated (Count)
system.cpu.committedOps                     408634013                       # Number of Ops (including micro ops) Simulated (Count)
system.cpu.cpi                               0.585425                       # CPI: Cycles Per Instruction ((Cycle/Count))
system.cpu.totalCpi                          0.585425                       # CPI: Total CPI of All Threads ((Cycle/Count))
system.cpu.ipc                               1.708160                       # IPC: Instructions Per Cycle ((Count/Cycle))
system.cpu.totalIpc                          1.708160                       # IPC: Total IPC of All Threads ((Count/Cycle))
system.cpu.intRegfileReads                  587007913                       # Number of integer regfile reads (Count)
system.cpu.intRegfileWrites                 304774316                       # Number of integer regfile writes (Count)
system.cpu.fpRegfileReads                    36700508                       # Number of floating regfile reads (Count)
system.cpu.fpRegfileWrites                   20389423                       # Number of floating regfile writes (Count)
system.cpu.ccRegfileReads                   177577593                       # number of cc regfile reads (Count)
system.cpu.ccRegfileWrites                   81703179                       # number of cc regfile writes (Count)
system.cpu.miscRegfileReads                 170732078                       # number of misc regfile reads (Count)
system.cpu.miscRegfileWrites                       18                       # number of misc regfile writes (Count)
system.cpu.MemDepUnit__0.insertedLoads       46950673                       # Number of loads inserted to the mem dependence unit. (Count)
system.cpu.MemDepUnit__0.insertedStores      41471566                       # Number of stores inserted to the mem dependence unit. (Count)
system.cpu.MemDepUnit__0.conflictingLoads      6113778                       # Number of conflicting loads. (Count)
system.cpu.MemDepUnit__0.conflictingStores       683218                       # Number of conflicting stores. (Count)
system.cpu.MemDepUnit__1.insertedLoads              0                       # Number of loads inserted to the mem dependence unit. (Count)
system.cpu.MemDepUnit__1.insertedStores             0                       # Number of stores inserted to the mem dependence unit. (Count)
system.cpu.MemDepUnit__1.conflictingLoads            0                       # Number of conflicting loads. (Count)
system.cpu.MemDepUnit__1.conflictingStores            0                       # Number of conflicting stores. (Count)
system.cpu.MemDepUnit__2.insertedLoads              0                       # Number of loads inserted to the mem dependence unit. (Count)
system.cpu.MemDepUnit__2.insertedStores             0                       # Number of stores inserted to the mem dependence unit. (Count)
system.cpu.MemDepUnit__2.conflictingLoads            0                       # Number of conflicting loads. (Count)
system.cpu.MemDepUnit__2.conflictingStores            0                       # Number of conflicting stores. (Count)
system.cpu.MemDepUnit__3.insertedLoads              0                       # Number of loads inserted to the mem dependence unit. (Count)
system.cpu.MemDepUnit__3.insertedStores             0                       # Number of stores inserted to the mem dependence unit. (Count)
system.cpu.MemDepUnit__3.conflictingLoads            0                       # Number of conflicting loads. (Count)
system.cpu.MemDepUnit__3.conflictingStores            0                       # Number of conflicting stores. (Count)
system.cpu.branchPred.lookups                40845794                       # Number of BP lookups (Count)
system.cpu.branchPred.condPredicted          17728993                       # Number of conditional branches predicted (Count)
system.cpu.branchPred.condIncorrect           1363787                       # Number of conditional branches incorrect (Count)
system.cpu.branchPred.BTBLookups             21093810                       # Number of BTB lookups (Count)
system.cpu.branchPred.BTBHits                21091904                       # Number of BTB hits (Count)
system.cpu.branchPred.BTBHitRatio            0.999910                       # BTB Hit Ratio (Ratio)
system.cpu.branchPred.RASUsed                 9514308                       # Number of times the RAS was used to get a target. (Count)
system.cpu.branchPred.RASIncorrect                  2                       # Number of incorrect RAS predictions. (Count)
system.cpu.branchPred.indirectLookups          680757                       # Number of indirect predictor lookups. (Count)
system.cpu.branchPred.indirectHits             679622                       # Number of indirect target hits. (Count)
system.cpu.branchPred.indirectMisses             1135                       # Number of indirect misses. (Count)
system.cpu.branchPred.indirectMispredicted          300                       # Number of mispredicted indirect branches. (Count)
system.cpu.commit.commitSquashedInsts          260498                       # The number of squashed insts skipped by commit (Count)
system.cpu.commit.commitNonSpecStalls              18                       # The number of times commit has been forced to stall to communicate backwards (Count)
system.cpu.commit.branchMispredicts              4892                       # The number of times a branch was mispredicted (Count)
system.cpu.commit.numCommittedDist::samples    111744405                       # Number of insts commited each cycle
system.cpu.commit.numCommittedDist::mean     3.656863                       # Number of insts commited each cycle
system.cpu.commit.numCommittedDist::stdev     3.250615                       # Number of insts commited each cycle
system.cpu.commit.numCommittedDist::underflows            0      0.00%      0.00% # Number of insts commited each cycle
system.cpu.commit.numCommittedDist::0        21289947     19.05%     19.05% # Number of insts commited each cycle
system.cpu.commit.numCommittedDist::1        21772225     19.48%     38.54% # Number of insts commited each cycle
system.cpu.commit.numCommittedDist::2        14956934     13.38%     51.92% # Number of insts commited each cycle
system.cpu.commit.numCommittedDist::3         9535479      8.53%     60.45% # Number of insts commited each cycle
system.cpu.commit.numCommittedDist::4         2721857      2.44%     62.89% # Number of insts commited each cycle
system.cpu.commit.numCommittedDist::5         3401489      3.04%     65.93% # Number of insts commited each cycle
system.cpu.commit.numCommittedDist::6         2041519      1.83%     67.76% # Number of insts commited each cycle
system.cpu.commit.numCommittedDist::7            2144      0.00%     67.76% # Number of insts commited each cycle
system.cpu.commit.numCommittedDist::8        36022811     32.24%    100.00% # Number of insts commited each cycle
system.cpu.commit.numCommittedDist::overflows            0      0.00%    100.00% # Number of insts commited each cycle
system.cpu.commit.numCommittedDist::min_value            0                       # Number of insts commited each cycle
system.cpu.commit.numCommittedDist::max_value            8                       # Number of insts commited each cycle
system.cpu.commit.numCommittedDist::total    111744405                       # Number of insts commited each cycle
system.cpu.commit.instsCommitted            191083655                       # Number of instructions committed (Count)
system.cpu.commit.opsCommitted              408634013                       # Number of ops (including micro ops) committed (Count)
system.cpu.commit.memRefs                    88374346                       # Number of memory references committed (Count)
system.cpu.commit.loads                      46918571                       # Number of loads committed (Count)
system.cpu.commit.amos                              0                       # Number of atomic instructions committed (Count)
system.cpu.commit.membars                           0                       # Number of memory barriers committed (Count)
system.cpu.commit.branches                   40122995                       # Number of branches committed (Count)
system.cpu.commit.vectorInstructions                0                       # Number of committed Vector instructions. (Count)
system.cpu.commit.floating                   27182228                       # Number of committed floating point instructions. (Count)
system.cpu.commit.integer                   384170319                       # Number of committed integer instructions. (Count)
system.cpu.commit.functionCalls               9512269                       # Number of function calls committed. (Count)
system.cpu.commit.committedInstType_0::No_OpClass     12910567      3.16%      3.16% # Class of committed instruction (Count)
system.cpu.commit.committedInstType_0::IntAlu    288320762     70.56%     73.72% # Class of committed instruction (Count)
system.cpu.commit.committedInstType_0::IntMult       679421      0.17%     73.88% # Class of committed instruction (Count)
system.cpu.commit.committedInstType_0::IntDiv      4757178      1.16%     75.05% # Class of committed instruction (Count)
system.cpu.commit.committedInstType_0::FloatAdd          391      0.00%     75.05% # Class of committed instruction (Count)
system.cpu.commit.committedInstType_0::FloatCmp            0      0.00%     75.05% # Class of committed instruction (Count)
system.cpu.commit.committedInstType_0::FloatCvt           32      0.00%     75.05% # Class of committed instruction (Count)
system.cpu.commit.committedInstType_0::FloatMult            0      0.00%     75.05% # Class of committed instruction (Count)
system.cpu.commit.committedInstType_0::FloatMultAcc            0      0.00%     75.05% # Class of committed instruction (Count)
system.cpu.commit.committedInstType_0::FloatDiv            0      0.00%     75.05% # Class of committed instruction (Count)
system.cpu.commit.committedInstType_0::FloatMisc            0      0.00%     75.05% # Class of committed instruction (Count)
system.cpu.commit.committedInstType_0::FloatSqrt            0      0.00%     75.05% # Class of committed instruction (Count)
system.cpu.commit.committedInstType_0::SimdAdd      2717946      0.67%     75.71% # Class of committed instruction (Count)
system.cpu.commit.committedInstType_0::SimdAddAcc            0      0.00%     75.71% # Class of committed instruction (Count)
system.cpu.commit.committedInstType_0::SimdAlu      2718483      0.67%     76.38% # Class of committed instruction (Count)
system.cpu.commit.committedInstType_0::SimdCmp            0      0.00%     76.38% # Class of committed instruction (Count)
system.cpu.commit.committedInstType_0::SimdCvt      5436076      1.33%     77.71% # Class of committed instruction (Count)
system.cpu.commit.committedInstType_0::SimdMisc      2718582      0.67%     78.37% # Class of committed instruction (Count)
system.cpu.commit.committedInstType_0::SimdMult            0      0.00%     78.37% # Class of committed instruction (Count)
system.cpu.commit.committedInstType_0::SimdMultAcc            0      0.00%     78.37% # Class of committed instruction (Count)
system.cpu.commit.committedInstType_0::SimdShift          229      0.00%     78.37% # Class of committed instruction (Count)
system.cpu.commit.committedInstType_0::SimdShiftAcc            0      0.00%     78.37% # Class of committed instruction (Count)
system.cpu.commit.committedInstType_0::SimdDiv            0      0.00%     78.37% # Class of committed instruction (Count)
system.cpu.commit.committedInstType_0::SimdSqrt            0      0.00%     78.37% # Class of committed instruction (Count)
system.cpu.commit.committedInstType_0::SimdFloatAdd            0      0.00%     78.37% # Class of committed instruction (Count)
system.cpu.commit.committedInstType_0::SimdFloatAlu            0      0.00%     78.37% # Class of committed instruction (Count)
system.cpu.commit.committedInstType_0::SimdFloatCmp            0      0.00%     78.37% # Class of committed instruction (Count)
system.cpu.commit.committedInstType_0::SimdFloatCvt            0      0.00%     78.37% # Class of committed instruction (Count)
system.cpu.commit.committedInstType_0::SimdFloatDiv            0      0.00%     78.37% # Class of committed instruction (Count)
system.cpu.commit.committedInstType_0::SimdFloatMisc            0      0.00%     78.37% # Class of committed instruction (Count)
system.cpu.commit.committedInstType_0::SimdFloatMult            0      0.00%     78.37% # Class of committed instruction (Count)
system.cpu.commit.committedInstType_0::SimdFloatMultAcc            0      0.00%     78.37% # Class of committed instruction (Count)
system.cpu.commit.committedInstType_0::SimdFloatSqrt            0      0.00%     78.37% # Class of committed instruction (Count)
system.cpu.commit.committedInstType_0::SimdReduceAdd            0      0.00%     78.37% # Class of committed instruction (Count)
system.cpu.commit.committedInstType_0::SimdReduceAlu            0      0.00%     78.37% # Class of committed instruction (Count)
system.cpu.commit.committedInstType_0::SimdReduceCmp            0      0.00%     78.37% # Class of committed instruction (Count)
system.cpu.commit.committedInstType_0::SimdFloatReduceAdd            0      0.00%     78.37% # Class of committed instruction (Count)
system.cpu.commit.committedInstType_0::SimdFloatReduceCmp            0      0.00%     78.37% # Class of committed instruction (Count)
system.cpu.commit.committedInstType_0::SimdAes            0      0.00%     78.37% # Class of committed instruction (Count)
system.cpu.commit.committedInstType_0::SimdAesMix            0      0.00%     78.37% # Class of committed instruction (Count)
system.cpu.commit.committedInstType_0::SimdSha1Hash            0      0.00%     78.37% # Class of committed instruction (Count)
system.cpu.commit.committedInstType_0::SimdSha1Hash2            0      0.00%     78.37% # Class of committed instruction (Count)
system.cpu.commit.committedInstType_0::SimdSha256Hash            0      0.00%     78.37% # Class of committed instruction (Count)
system.cpu.commit.committedInstType_0::SimdSha256Hash2            0      0.00%     78.37% # Class of committed instruction (Count)
system.cpu.commit.committedInstType_0::SimdShaSigma2            0      0.00%     78.37% # Class of committed instruction (Count)
system.cpu.commit.committedInstType_0::SimdShaSigma3            0      0.00%     78.37% # Class of committed instruction (Count)
system.cpu.commit.committedInstType_0::SimdPredAlu            0      0.00%     78.37% # Class of committed instruction (Count)
system.cpu.commit.committedInstType_0::MemRead     37406015      9.15%     87.53% # Class of committed instruction (Count)
system.cpu.commit.committedInstType_0::MemWrite     37378214      9.15%     96.67% # Class of committed instruction (Count)
system.cpu.commit.committedInstType_0::FloatMemRead      9512556      2.33%     99.00% # Class of committed instruction (Count)
system.cpu.commit.committedInstType_0::FloatMemWrite      4077561      1.00%    100.00% # Class of committed instruction (Count)
system.cpu.commit.committedInstType_0::IprAccess            0      0.00%    100.00% # Class of committed instruction (Count)
system.cpu.commit.committedInstType_0::InstPrefetch            0      0.00%    100.00% # Class of committed instruction (Count)
system.cpu.commit.committedInstType_0::total    408634013                       # Class of committed instruction (Count)
system.cpu.commit.commitEligibleSamples      36022811                       # number cycles where commit BW limit reached (Cycle)
system.cpu.dcache.demandHits::cpu.data       68001275                       # number of demand (read+write) hits (Count)
system.cpu.dcache.demandHits::total          68001275                       # number of demand (read+write) hits (Count)
system.cpu.dcache.overallHits::cpu.data      68001275                       # number of overall hits (Count)
system.cpu.dcache.overallHits::total         68001275                       # number of overall hits (Count)
system.cpu.dcache.demandMisses::cpu.data        12808                       # number of demand (read+write) misses (Count)
system.cpu.dcache.demandMisses::total           12808                       # number of demand (read+write) misses (Count)
system.cpu.dcache.overallMisses::cpu.data        12808                       # number of overall misses (Count)
system.cpu.dcache.overallMisses::total          12808                       # number of overall misses (Count)
system.cpu.dcache.demandMissLatency::cpu.data    651561499                       # number of demand (read+write) miss ticks (Tick)
system.cpu.dcache.demandMissLatency::total    651561499                       # number of demand (read+write) miss ticks (Tick)
system.cpu.dcache.overallMissLatency::cpu.data    651561499                       # number of overall miss ticks (Tick)
system.cpu.dcache.overallMissLatency::total    651561499                       # number of overall miss ticks (Tick)
system.cpu.dcache.demandAccesses::cpu.data     68014083                       # number of demand (read+write) accesses (Count)
system.cpu.dcache.demandAccesses::total      68014083                       # number of demand (read+write) accesses (Count)
system.cpu.dcache.overallAccesses::cpu.data     68014083                       # number of overall (read+write) accesses (Count)
system.cpu.dcache.overallAccesses::total     68014083                       # number of overall (read+write) accesses (Count)
system.cpu.dcache.demandMissRate::cpu.data     0.000188                       # miss rate for demand accesses (Ratio)
system.cpu.dcache.demandMissRate::total      0.000188                       # miss rate for demand accesses (Ratio)
system.cpu.dcache.overallMissRate::cpu.data     0.000188                       # miss rate for overall accesses (Ratio)
system.cpu.dcache.overallMissRate::total     0.000188                       # miss rate for overall accesses (Ratio)
system.cpu.dcache.demandAvgMissLatency::cpu.data 50871.447455                       # average overall miss latency ((Cycle/Count))
system.cpu.dcache.demandAvgMissLatency::total 50871.447455                       # average overall miss latency ((Cycle/Count))
system.cpu.dcache.overallAvgMissLatency::cpu.data 50871.447455                       # average overall miss latency ((Cycle/Count))
system.cpu.dcache.overallAvgMissLatency::total 50871.447455                       # average overall miss latency ((Cycle/Count))
system.cpu.dcache.blockedCycles::no_mshrs        12289                       # number of cycles access was blocked (Cycle)
system.cpu.dcache.blockedCycles::no_targets            0                       # number of cycles access was blocked (Cycle)
system.cpu.dcache.blockedCauses::no_mshrs          311                       # number of times access was blocked (Count)
system.cpu.dcache.blockedCauses::no_targets            0                       # number of times access was blocked (Count)
system.cpu.dcache.avgBlocked::no_mshrs      39.514469                       # average number of cycles each access was blocked ((Cycle/Count))
system.cpu.dcache.avgBlocked::no_targets          nan                       # average number of cycles each access was blocked ((Cycle/Count))
system.cpu.dcache.writebacks::writebacks          546                       # number of writebacks (Count)
system.cpu.dcache.writebacks::total               546                       # number of writebacks (Count)
system.cpu.dcache.demandMshrHits::cpu.data         9829                       # number of demand (read+write) MSHR hits (Count)
system.cpu.dcache.demandMshrHits::total          9829                       # number of demand (read+write) MSHR hits (Count)
system.cpu.dcache.overallMshrHits::cpu.data         9829                       # number of overall MSHR hits (Count)
system.cpu.dcache.overallMshrHits::total         9829                       # number of overall MSHR hits (Count)
system.cpu.dcache.demandMshrMisses::cpu.data         2979                       # number of demand (read+write) MSHR misses (Count)
system.cpu.dcache.demandMshrMisses::total         2979                       # number of demand (read+write) MSHR misses (Count)
system.cpu.dcache.overallMshrMisses::cpu.data         2979                       # number of overall MSHR misses (Count)
system.cpu.dcache.overallMshrMisses::total         2979                       # number of overall MSHR misses (Count)
system.cpu.dcache.demandMshrMissLatency::cpu.data    180183499                       # number of demand (read+write) MSHR miss ticks (Tick)
system.cpu.dcache.demandMshrMissLatency::total    180183499                       # number of demand (read+write) MSHR miss ticks (Tick)
system.cpu.dcache.overallMshrMissLatency::cpu.data    180183499                       # number of overall MSHR miss ticks (Tick)
system.cpu.dcache.overallMshrMissLatency::total    180183499                       # number of overall MSHR miss ticks (Tick)
system.cpu.dcache.demandMshrMissRate::cpu.data     0.000044                       # mshr miss ratio for demand accesses (Ratio)
system.cpu.dcache.demandMshrMissRate::total     0.000044                       # mshr miss ratio for demand accesses (Ratio)
system.cpu.dcache.overallMshrMissRate::cpu.data     0.000044                       # mshr miss ratio for overall accesses (Ratio)
system.cpu.dcache.overallMshrMissRate::total     0.000044                       # mshr miss ratio for overall accesses (Ratio)
system.cpu.dcache.demandAvgMshrMissLatency::cpu.data 60484.558241                       # average overall mshr miss latency ((Cycle/Count))
system.cpu.dcache.demandAvgMshrMissLatency::total 60484.558241                       # average overall mshr miss latency ((Cycle/Count))
system.cpu.dcache.overallAvgMshrMissLatency::cpu.data 60484.558241                       # average overall mshr miss latency ((Cycle/Count))
system.cpu.dcache.overallAvgMshrMissLatency::total 60484.558241                       # average overall mshr miss latency ((Cycle/Count))
system.cpu.dcache.replacements                   1956                       # number of replacements (Count)
system.cpu.dcache.ReadReq.hits::cpu.data     26546092                       # number of ReadReq hits (Count)
system.cpu.dcache.ReadReq.hits::total        26546092                       # number of ReadReq hits (Count)
system.cpu.dcache.ReadReq.misses::cpu.data        12208                       # number of ReadReq misses (Count)
system.cpu.dcache.ReadReq.misses::total         12208                       # number of ReadReq misses (Count)
system.cpu.dcache.ReadReq.missLatency::cpu.data    615439000                       # number of ReadReq miss ticks (Tick)
system.cpu.dcache.ReadReq.missLatency::total    615439000                       # number of ReadReq miss ticks (Tick)
system.cpu.dcache.ReadReq.accesses::cpu.data     26558300                       # number of ReadReq accesses(hits+misses) (Count)
system.cpu.dcache.ReadReq.accesses::total     26558300                       # number of ReadReq accesses(hits+misses) (Count)
system.cpu.dcache.ReadReq.missRate::cpu.data     0.000460                       # miss rate for ReadReq accesses (Ratio)
system.cpu.dcache.ReadReq.missRate::total     0.000460                       # miss rate for ReadReq accesses (Ratio)
system.cpu.dcache.ReadReq.avgMissLatency::cpu.data 50412.762123                       # average ReadReq miss latency ((Tick/Count))
system.cpu.dcache.ReadReq.avgMissLatency::total 50412.762123                       # average ReadReq miss latency ((Tick/Count))
system.cpu.dcache.ReadReq.mshrHits::cpu.data         9824                       # number of ReadReq MSHR hits (Count)
system.cpu.dcache.ReadReq.mshrHits::total         9824                       # number of ReadReq MSHR hits (Count)
system.cpu.dcache.ReadReq.mshrMisses::cpu.data         2384                       # number of ReadReq MSHR misses (Count)
system.cpu.dcache.ReadReq.mshrMisses::total         2384                       # number of ReadReq MSHR misses (Count)
system.cpu.dcache.ReadReq.mshrMissLatency::cpu.data    144873500                       # number of ReadReq MSHR miss ticks (Tick)
system.cpu.dcache.ReadReq.mshrMissLatency::total    144873500                       # number of ReadReq MSHR miss ticks (Tick)
system.cpu.dcache.ReadReq.mshrMissRate::cpu.data     0.000090                       # mshr miss rate for ReadReq accesses (Ratio)
system.cpu.dcache.ReadReq.mshrMissRate::total     0.000090                       # mshr miss rate for ReadReq accesses (Ratio)
system.cpu.dcache.ReadReq.avgMshrMissLatency::cpu.data 60769.085570                       # average ReadReq mshr miss latency ((Tick/Count))
system.cpu.dcache.ReadReq.avgMshrMissLatency::total 60769.085570                       # average ReadReq mshr miss latency ((Tick/Count))
system.cpu.dcache.WriteReq.hits::cpu.data     41455183                       # number of WriteReq hits (Count)
system.cpu.dcache.WriteReq.hits::total       41455183                       # number of WriteReq hits (Count)
system.cpu.dcache.WriteReq.misses::cpu.data          600                       # number of WriteReq misses (Count)
system.cpu.dcache.WriteReq.misses::total          600                       # number of WriteReq misses (Count)
system.cpu.dcache.WriteReq.missLatency::cpu.data     36122499                       # number of WriteReq miss ticks (Tick)
system.cpu.dcache.WriteReq.missLatency::total     36122499                       # number of WriteReq miss ticks (Tick)
system.cpu.dcache.WriteReq.accesses::cpu.data     41455783                       # number of WriteReq accesses(hits+misses) (Count)
system.cpu.dcache.WriteReq.accesses::total     41455783                       # number of WriteReq accesses(hits+misses) (Count)
system.cpu.dcache.WriteReq.missRate::cpu.data     0.000014                       # miss rate for WriteReq accesses (Ratio)
system.cpu.dcache.WriteReq.missRate::total     0.000014                       # miss rate for WriteReq accesses (Ratio)
system.cpu.dcache.WriteReq.avgMissLatency::cpu.data 60204.165000                       # average WriteReq miss latency ((Tick/Count))
system.cpu.dcache.WriteReq.avgMissLatency::total 60204.165000                       # average WriteReq miss latency ((Tick/Count))
system.cpu.dcache.WriteReq.mshrHits::cpu.data            5                       # number of WriteReq MSHR hits (Count)
system.cpu.dcache.WriteReq.mshrHits::total            5                       # number of WriteReq MSHR hits (Count)
system.cpu.dcache.WriteReq.mshrMisses::cpu.data          595                       # number of WriteReq MSHR misses (Count)
system.cpu.dcache.WriteReq.mshrMisses::total          595                       # number of WriteReq MSHR misses (Count)
system.cpu.dcache.WriteReq.mshrMissLatency::cpu.data     35309999                       # number of WriteReq MSHR miss ticks (Tick)
system.cpu.dcache.WriteReq.mshrMissLatency::total     35309999                       # number of WriteReq MSHR miss ticks (Tick)
system.cpu.dcache.WriteReq.mshrMissRate::cpu.data     0.000014                       # mshr miss rate for WriteReq accesses (Ratio)
system.cpu.dcache.WriteReq.mshrMissRate::total     0.000014                       # mshr miss rate for WriteReq accesses (Ratio)
system.cpu.dcache.WriteReq.avgMshrMissLatency::cpu.data 59344.536134                       # average WriteReq mshr miss latency ((Tick/Count))
system.cpu.dcache.WriteReq.avgMshrMissLatency::total 59344.536134                       # average WriteReq mshr miss latency ((Tick/Count))
system.cpu.dcache.power_state.pwrStateResidencyTicks::UNDEFINED  55932586500                       # Cumulative time (in ticks) in various power states (Tick)
system.cpu.dcache.tags.tagsInUse          1022.171672                       # Average ticks per tags in use ((Tick/Count))
system.cpu.dcache.tags.totalRefs             68004254                       # Total number of references to valid blocks. (Count)
system.cpu.dcache.tags.sampledRefs               2979                       # Sample count of references to valid blocks. (Count)
system.cpu.dcache.tags.avgRefs           22827.879825                       # Average number of references to valid blocks. ((Count/Count))
system.cpu.dcache.tags.warmupTick              148000                       # The tick when the warmup percentage was hit. (Tick)
system.cpu.dcache.tags.occupancies::cpu.data  1022.171672                       # Average occupied blocks per tick, per requestor ((Count/Tick))
system.cpu.dcache.tags.avgOccs::cpu.data     0.998215                       # Average percentage of cache occupancy ((Ratio/Tick))
system.cpu.dcache.tags.avgOccs::total        0.998215                       # Average percentage of cache occupancy ((Ratio/Tick))
system.cpu.dcache.tags.occupanciesTaskId::1024         1023                       # Occupied blocks per task id (Count)
system.cpu.dcache.tags.ageTaskId_1024::4         1023                       # Occupied blocks per task id, per block age (Count)
system.cpu.dcache.tags.ratioOccsTaskId::1024     0.999023                       # Ratio of occupied blocks and all blocks, per task id (Ratio)
system.cpu.dcache.tags.tagAccesses          136031145                       # Number of tag accesses (Count)
system.cpu.dcache.tags.dataAccesses         136031145                       # Number of data accesses (Count)
system.cpu.dcache.tags.power_state.pwrStateResidencyTicks::UNDEFINED  55932586500                       # Cumulative time (in ticks) in various power states (Tick)
system.cpu.decode.idleCycles                 26590697                       # Number of cycles decode is idle (Cycle)
system.cpu.decode.blockedCycles              20541650                       # Number of cycles decode is blocked (Cycle)
system.cpu.decode.runCycles                  53089734                       # Number of cycles decode is running (Cycle)
system.cpu.decode.unblockCycles              11553838                       # Number of cycles decode is unblocking (Cycle)
system.cpu.decode.squashCycles                   5944                       # Number of cycles decode is squashing (Cycle)
system.cpu.decode.branchResolved             20410639                       # Number of times decode resolved a branch (Count)
system.cpu.decode.branchMispred               1359334                       # Number of times decode detected a branch misprediction (Count)
system.cpu.decode.decodedInsts              408957184                       # Number of instructions handled by decode (Count)
system.cpu.decode.squashedInsts               3399508                       # Number of squashed instructions handled by decode (Count)
system.cpu.dtb_walker_cache.blockedCycles::no_mshrs            0                       # number of cycles access was blocked (Cycle)
system.cpu.dtb_walker_cache.blockedCycles::no_targets            0                       # number of cycles access was blocked (Cycle)
system.cpu.dtb_walker_cache.blockedCauses::no_mshrs            0                       # number of times access was blocked (Count)
system.cpu.dtb_walker_cache.blockedCauses::no_targets            0                       # number of times access was blocked (Count)
system.cpu.dtb_walker_cache.avgBlocked::no_mshrs          nan                       # average number of cycles each access was blocked ((Cycle/Count))
system.cpu.dtb_walker_cache.avgBlocked::no_targets          nan                       # average number of cycles each access was blocked ((Cycle/Count))
system.cpu.dtb_walker_cache.replacements            0                       # number of replacements (Count)
system.cpu.dtb_walker_cache.power_state.pwrStateResidencyTicks::UNDEFINED  55932586500                       # Cumulative time (in ticks) in various power states (Tick)
system.cpu.dtb_walker_cache.tags.tagsInUse            0                       # Average ticks per tags in use ((Tick/Count))
system.cpu.dtb_walker_cache.tags.totalRefs            0                       # Total number of references to valid blocks. (Count)
system.cpu.dtb_walker_cache.tags.sampledRefs            0                       # Sample count of references to valid blocks. (Count)
system.cpu.dtb_walker_cache.tags.avgRefs          nan                       # Average number of references to valid blocks. ((Count/Count))
system.cpu.dtb_walker_cache.tags.warmupTick            0                       # The tick when the warmup percentage was hit. (Tick)
system.cpu.dtb_walker_cache.tags.tagAccesses            0                       # Number of tag accesses (Count)
system.cpu.dtb_walker_cache.tags.dataAccesses            0                       # Number of data accesses (Count)
system.cpu.dtb_walker_cache.tags.power_state.pwrStateResidencyTicks::UNDEFINED  55932586500                       # Cumulative time (in ticks) in various power states (Tick)
system.cpu.fetch.icacheStallCycles           36106224                       # Number of cycles fetch is stalled on an Icache miss (Cycle)
system.cpu.fetch.insts                      192648390                       # Number of instructions fetch has processed (Count)
system.cpu.fetch.branches                    40845794                       # Number of branches that fetch encountered (Count)
system.cpu.fetch.predictedBranches           31285834                       # Number of branches that fetch has predicted taken (Count)
system.cpu.fetch.cycles                      74306879                       # Number of cycles fetch has run and was not squashing or blocked (Cycle)
system.cpu.fetch.squashCycles                 2730528                       # Number of cycles fetch has spent squashing (Cycle)
system.cpu.fetch.miscStallCycles                  454                       # Number of cycles fetch has spent waiting on interrupts, or bad addresses, or out of MSHRs (Cycle)
system.cpu.fetch.pendingTrapStallCycles          2998                       # Number of stall cycles due to pending traps (Cycle)
system.cpu.fetch.pendingQuiesceStallCycles           44                       # Number of stall cycles due to pending quiesce instructions (Cycle)
system.cpu.fetch.cacheLines                  34703144                       # Number of cache lines fetched (Count)
system.cpu.fetch.icacheSquashes                  2433                       # Number of outstanding Icache misses that were squashed (Count)
system.cpu.fetch.nisnDist::samples          111781863                       # Number of instructions fetched each cycle (Total)
system.cpu.fetch.nisnDist::mean              3.689382                       # Number of instructions fetched each cycle (Total)
system.cpu.fetch.nisnDist::stdev             3.408750                       # Number of instructions fetched each cycle (Total)
system.cpu.fetch.nisnDist::underflows               0      0.00%      0.00% # Number of instructions fetched each cycle (Total)
system.cpu.fetch.nisnDist::0                 42366883     37.90%     37.90% # Number of instructions fetched each cycle (Total)
system.cpu.fetch.nisnDist::1                  3408503      3.05%     40.95% # Number of instructions fetched each cycle (Total)
system.cpu.fetch.nisnDist::2                  6130307      5.48%     46.43% # Number of instructions fetched each cycle (Total)
system.cpu.fetch.nisnDist::3                  4758043      4.26%     50.69% # Number of instructions fetched each cycle (Total)
system.cpu.fetch.nisnDist::4                  2723307      2.44%     53.13% # Number of instructions fetched each cycle (Total)
system.cpu.fetch.nisnDist::5                  7479364      6.69%     59.82% # Number of instructions fetched each cycle (Total)
system.cpu.fetch.nisnDist::6                 10873300      9.73%     69.55% # Number of instructions fetched each cycle (Total)
system.cpu.fetch.nisnDist::7                  3404331      3.05%     72.59% # Number of instructions fetched each cycle (Total)
system.cpu.fetch.nisnDist::8                 30637825     27.41%    100.00% # Number of instructions fetched each cycle (Total)
system.cpu.fetch.nisnDist::overflows                0      0.00%    100.00% # Number of instructions fetched each cycle (Total)
system.cpu.fetch.nisnDist::min_value                0                       # Number of instructions fetched each cycle (Total)
system.cpu.fetch.nisnDist::max_value                8                       # Number of instructions fetched each cycle (Total)
system.cpu.fetch.nisnDist::total            111781863                       # Number of instructions fetched each cycle (Total)
system.cpu.fetch.branchRate                  0.365134                       # Number of branch fetches per cycle (Ratio)
system.cpu.fetch.rate                        1.722148                       # Number of inst fetches per cycle ((Count/Cycle))
system.cpu.icache.demandHits::cpu.inst       34701271                       # number of demand (read+write) hits (Count)
system.cpu.icache.demandHits::total          34701271                       # number of demand (read+write) hits (Count)
system.cpu.icache.overallHits::cpu.inst      34701271                       # number of overall hits (Count)
system.cpu.icache.overallHits::total         34701271                       # number of overall hits (Count)
system.cpu.icache.demandMisses::cpu.inst         1873                       # number of demand (read+write) misses (Count)
system.cpu.icache.demandMisses::total            1873                       # number of demand (read+write) misses (Count)
system.cpu.icache.overallMisses::cpu.inst         1873                       # number of overall misses (Count)
system.cpu.icache.overallMisses::total           1873                       # number of overall misses (Count)
system.cpu.icache.demandMissLatency::cpu.inst    112965500                       # number of demand (read+write) miss ticks (Tick)
system.cpu.icache.demandMissLatency::total    112965500                       # number of demand (read+write) miss ticks (Tick)
system.cpu.icache.overallMissLatency::cpu.inst    112965500                       # number of overall miss ticks (Tick)
system.cpu.icache.overallMissLatency::total    112965500                       # number of overall miss ticks (Tick)
system.cpu.icache.demandAccesses::cpu.inst     34703144                       # number of demand (read+write) accesses (Count)
system.cpu.icache.demandAccesses::total      34703144                       # number of demand (read+write) accesses (Count)
system.cpu.icache.overallAccesses::cpu.inst     34703144                       # number of overall (read+write) accesses (Count)
system.cpu.icache.overallAccesses::total     34703144                       # number of overall (read+write) accesses (Count)
system.cpu.icache.demandMissRate::cpu.inst     0.000054                       # miss rate for demand accesses (Ratio)
system.cpu.icache.demandMissRate::total      0.000054                       # miss rate for demand accesses (Ratio)
system.cpu.icache.overallMissRate::cpu.inst     0.000054                       # miss rate for overall accesses (Ratio)
system.cpu.icache.overallMissRate::total     0.000054                       # miss rate for overall accesses (Ratio)
system.cpu.icache.demandAvgMissLatency::cpu.inst 60312.600107                       # average overall miss latency ((Cycle/Count))
system.cpu.icache.demandAvgMissLatency::total 60312.600107                       # average overall miss latency ((Cycle/Count))
system.cpu.icache.overallAvgMissLatency::cpu.inst 60312.600107                       # average overall miss latency ((Cycle/Count))
system.cpu.icache.overallAvgMissLatency::total 60312.600107                       # average overall miss latency ((Cycle/Count))
system.cpu.icache.blockedCycles::no_mshrs          356                       # number of cycles access was blocked (Cycle)
system.cpu.icache.blockedCycles::no_targets            0                       # number of cycles access was blocked (Cycle)
system.cpu.icache.blockedCauses::no_mshrs            7                       # number of times access was blocked (Count)
system.cpu.icache.blockedCauses::no_targets            0                       # number of times access was blocked (Count)
system.cpu.icache.avgBlocked::no_mshrs      50.857143                       # average number of cycles each access was blocked ((Cycle/Count))
system.cpu.icache.avgBlocked::no_targets          nan                       # average number of cycles each access was blocked ((Cycle/Count))
system.cpu.icache.writebacks::writebacks         1186                       # number of writebacks (Count)
system.cpu.icache.writebacks::total              1186                       # number of writebacks (Count)
system.cpu.icache.demandMshrHits::cpu.inst          431                       # number of demand (read+write) MSHR hits (Count)
system.cpu.icache.demandMshrHits::total           431                       # number of demand (read+write) MSHR hits (Count)
system.cpu.icache.overallMshrHits::cpu.inst          431                       # number of overall MSHR hits (Count)
system.cpu.icache.overallMshrHits::total          431                       # number of overall MSHR hits (Count)
system.cpu.icache.demandMshrMisses::cpu.inst         1442                       # number of demand (read+write) MSHR misses (Count)
system.cpu.icache.demandMshrMisses::total         1442                       # number of demand (read+write) MSHR misses (Count)
system.cpu.icache.overallMshrMisses::cpu.inst         1442                       # number of overall MSHR misses (Count)
system.cpu.icache.overallMshrMisses::total         1442                       # number of overall MSHR misses (Count)
system.cpu.icache.demandMshrMissLatency::cpu.inst     90592000                       # number of demand (read+write) MSHR miss ticks (Tick)
system.cpu.icache.demandMshrMissLatency::total     90592000                       # number of demand (read+write) MSHR miss ticks (Tick)
system.cpu.icache.overallMshrMissLatency::cpu.inst     90592000                       # number of overall MSHR miss ticks (Tick)
system.cpu.icache.overallMshrMissLatency::total     90592000                       # number of overall MSHR miss ticks (Tick)
system.cpu.icache.demandMshrMissRate::cpu.inst     0.000042                       # mshr miss ratio for demand accesses (Ratio)
system.cpu.icache.demandMshrMissRate::total     0.000042                       # mshr miss ratio for demand accesses (Ratio)
system.cpu.icache.overallMshrMissRate::cpu.inst     0.000042                       # mshr miss ratio for overall accesses (Ratio)
system.cpu.icache.overallMshrMissRate::total     0.000042                       # mshr miss ratio for overall accesses (Ratio)
system.cpu.icache.demandAvgMshrMissLatency::cpu.inst 62823.855756                       # average overall mshr miss latency ((Cycle/Count))
system.cpu.icache.demandAvgMshrMissLatency::total 62823.855756                       # average overall mshr miss latency ((Cycle/Count))
system.cpu.icache.overallAvgMshrMissLatency::cpu.inst 62823.855756                       # average overall mshr miss latency ((Cycle/Count))
system.cpu.icache.overallAvgMshrMissLatency::total 62823.855756                       # average overall mshr miss latency ((Cycle/Count))
system.cpu.icache.replacements                   1186                       # number of replacements (Count)
system.cpu.icache.ReadReq.hits::cpu.inst     34701271                       # number of ReadReq hits (Count)
system.cpu.icache.ReadReq.hits::total        34701271                       # number of ReadReq hits (Count)
system.cpu.icache.ReadReq.misses::cpu.inst         1873                       # number of ReadReq misses (Count)
system.cpu.icache.ReadReq.misses::total          1873                       # number of ReadReq misses (Count)
system.cpu.icache.ReadReq.missLatency::cpu.inst    112965500                       # number of ReadReq miss ticks (Tick)
system.cpu.icache.ReadReq.missLatency::total    112965500                       # number of ReadReq miss ticks (Tick)
system.cpu.icache.ReadReq.accesses::cpu.inst     34703144                       # number of ReadReq accesses(hits+misses) (Count)
system.cpu.icache.ReadReq.accesses::total     34703144                       # number of ReadReq accesses(hits+misses) (Count)
system.cpu.icache.ReadReq.missRate::cpu.inst     0.000054                       # miss rate for ReadReq accesses (Ratio)
system.cpu.icache.ReadReq.missRate::total     0.000054                       # miss rate for ReadReq accesses (Ratio)
system.cpu.icache.ReadReq.avgMissLatency::cpu.inst 60312.600107                       # average ReadReq miss latency ((Tick/Count))
system.cpu.icache.ReadReq.avgMissLatency::total 60312.600107                       # average ReadReq miss latency ((Tick/Count))
system.cpu.icache.ReadReq.mshrHits::cpu.inst          431                       # number of ReadReq MSHR hits (Count)
system.cpu.icache.ReadReq.mshrHits::total          431                       # number of ReadReq MSHR hits (Count)
system.cpu.icache.ReadReq.mshrMisses::cpu.inst         1442                       # number of ReadReq MSHR misses (Count)
system.cpu.icache.ReadReq.mshrMisses::total         1442                       # number of ReadReq MSHR misses (Count)
system.cpu.icache.ReadReq.mshrMissLatency::cpu.inst     90592000                       # number of ReadReq MSHR miss ticks (Tick)
system.cpu.icache.ReadReq.mshrMissLatency::total     90592000                       # number of ReadReq MSHR miss ticks (Tick)
system.cpu.icache.ReadReq.mshrMissRate::cpu.inst     0.000042                       # mshr miss rate for ReadReq accesses (Ratio)
system.cpu.icache.ReadReq.mshrMissRate::total     0.000042                       # mshr miss rate for ReadReq accesses (Ratio)
system.cpu.icache.ReadReq.avgMshrMissLatency::cpu.inst 62823.855756                       # average ReadReq mshr miss latency ((Tick/Count))
system.cpu.icache.ReadReq.avgMshrMissLatency::total 62823.855756                       # average ReadReq mshr miss latency ((Tick/Count))
system.cpu.icache.power_state.pwrStateResidencyTicks::UNDEFINED  55932586500                       # Cumulative time (in ticks) in various power states (Tick)
system.cpu.icache.tags.tagsInUse           255.954383                       # Average ticks per tags in use ((Tick/Count))
system.cpu.icache.tags.totalRefs             34702713                       # Total number of references to valid blocks. (Count)
system.cpu.icache.tags.sampledRefs               1442                       # Sample count of references to valid blocks. (Count)
system.cpu.icache.tags.avgRefs           24065.681692                       # Average number of references to valid blocks. ((Count/Count))
system.cpu.icache.tags.warmupTick               77000                       # The tick when the warmup percentage was hit. (Tick)
system.cpu.icache.tags.occupancies::cpu.inst   255.954383                       # Average occupied blocks per tick, per requestor ((Count/Tick))
system.cpu.icache.tags.avgOccs::cpu.inst     0.999822                       # Average percentage of cache occupancy ((Ratio/Tick))
system.cpu.icache.tags.avgOccs::total        0.999822                       # Average percentage of cache occupancy ((Ratio/Tick))
system.cpu.icache.tags.occupanciesTaskId::1024          256                       # Occupied blocks per task id (Count)
system.cpu.icache.tags.ageTaskId_1024::4          256                       # Occupied blocks per task id, per block age (Count)
system.cpu.icache.tags.ratioOccsTaskId::1024            1                       # Ratio of occupied blocks and all blocks, per task id (Ratio)
system.cpu.icache.tags.tagAccesses           69407730                       # Number of tag accesses (Count)
system.cpu.icache.tags.dataAccesses          69407730                       # Number of data accesses (Count)
system.cpu.icache.tags.power_state.pwrStateResidencyTicks::UNDEFINED  55932586500                       # Cumulative time (in ticks) in various power states (Tick)
system.cpu.interrupts.clk_domain.clock           8000                       # Clock period in ticks (Tick)
system.cpu.itb_walker_cache.blockedCycles::no_mshrs            0                       # number of cycles access was blocked (Cycle)
system.cpu.itb_walker_cache.blockedCycles::no_targets            0                       # number of cycles access was blocked (Cycle)
system.cpu.itb_walker_cache.blockedCauses::no_mshrs            0                       # number of times access was blocked (Count)
system.cpu.itb_walker_cache.blockedCauses::no_targets            0                       # number of times access was blocked (Count)
system.cpu.itb_walker_cache.avgBlocked::no_mshrs          nan                       # average number of cycles each access was blocked ((Cycle/Count))
system.cpu.itb_walker_cache.avgBlocked::no_targets          nan                       # average number of cycles each access was blocked ((Cycle/Count))
system.cpu.itb_walker_cache.replacements            0                       # number of replacements (Count)
system.cpu.itb_walker_cache.power_state.pwrStateResidencyTicks::UNDEFINED  55932586500                       # Cumulative time (in ticks) in various power states (Tick)
system.cpu.itb_walker_cache.tags.tagsInUse            0                       # Average ticks per tags in use ((Tick/Count))
system.cpu.itb_walker_cache.tags.totalRefs            0                       # Total number of references to valid blocks. (Count)
system.cpu.itb_walker_cache.tags.sampledRefs            0                       # Sample count of references to valid blocks. (Count)
system.cpu.itb_walker_cache.tags.avgRefs          nan                       # Average number of references to valid blocks. ((Count/Count))
system.cpu.itb_walker_cache.tags.warmupTick            0                       # The tick when the warmup percentage was hit. (Tick)
system.cpu.itb_walker_cache.tags.tagAccesses            0                       # Number of tag accesses (Count)
system.cpu.itb_walker_cache.tags.dataAccesses            0                       # Number of data accesses (Count)
system.cpu.itb_walker_cache.tags.power_state.pwrStateResidencyTicks::UNDEFINED  55932586500                       # Cumulative time (in ticks) in various power states (Tick)
system.cpu.lsq0.forwLoads                    20382381                       # Number of loads that had data forwarded from stores (Count)
system.cpu.lsq0.squashedLoads                   32083                       # Number of loads squashed (Count)
system.cpu.lsq0.ignoredResponses                   35                       # Number of memory responses ignored because the instruction is squashed (Count)
system.cpu.lsq0.memOrderViolation                1086                       # Number of memory ordering violations (Count)
system.cpu.lsq0.squashedStores                  15766                       # Number of stores squashed (Count)
system.cpu.lsq0.rescheduledLoads               679219                       # Number of loads that were rescheduled (Count)
system.cpu.lsq0.blockedByCache                    255                       # Number of times an access to memory failed due to the cache being blocked (Count)
system.cpu.mmu.dtb.rdAccesses                47620229                       # TLB accesses on read requests (Count)
system.cpu.mmu.dtb.wrAccesses                41463596                       # TLB accesses on write requests (Count)
system.cpu.mmu.dtb.rdMisses                       416                       # TLB misses on read requests (Count)
system.cpu.mmu.dtb.wrMisses                       107                       # TLB misses on write requests (Count)
system.cpu.mmu.dtb.walker.power_state.pwrStateResidencyTicks::UNDEFINED  55932586500                       # Cumulative time (in ticks) in various power states (Tick)
system.cpu.mmu.itb.rdAccesses                       0                       # TLB accesses on read requests (Count)
system.cpu.mmu.itb.wrAccesses                34703623                       # TLB accesses on write requests (Count)
system.cpu.mmu.itb.rdMisses                         0                       # TLB misses on read requests (Count)
system.cpu.mmu.itb.wrMisses                       604                       # TLB misses on write requests (Count)
system.cpu.mmu.itb.walker.power_state.pwrStateResidencyTicks::UNDEFINED  55932586500                       # Cumulative time (in ticks) in various power states (Tick)
system.cpu.power_state.pwrStateResidencyTicks::ON  55932586500                       # Cumulative time (in ticks) in various power states (Tick)
system.cpu.rename.squashCycles                   5944                       # Number of cycles rename is squashing (Cycle)
[...]
system.mem_ctrls.dram.bwWrite::total           624752                       # Write bandwidth from this memory ((Byte/Second))
system.mem_ctrls.dram.bwTotal::writebacks       624752                       # Total bandwidth to/from this memory ((Byte/Second))
system.mem_ctrls.dram.bwTotal::cpu.inst       1648842                       # Total bandwidth to/from this memory ((Byte/Second))
system.mem_ctrls.dram.bwTotal::cpu.data       3408675                       # Total bandwidth to/from this memory ((Byte/Second))
system.mem_ctrls.dram.bwTotal::total          5682269                       # Total bandwidth to/from this memory ((Byte/Second))
system.mem_ctrls.dram.readBursts                 4331                       # Number of DRAM read bursts (Count)
system.mem_ctrls.dram.writeBursts                1691                       # Number of DRAM write bursts (Count)
system.mem_ctrls.dram.perBankRdBursts::0          247                       # Per bank write bursts (Count)
system.mem_ctrls.dram.perBankRdBursts::1          269                       # Per bank write bursts (Count)
system.mem_ctrls.dram.perBankRdBursts::2          330                       # Per bank write bursts (Count)
system.mem_ctrls.dram.perBankRdBursts::3          294                       # Per bank write bursts (Count)
system.mem_ctrls.dram.perBankRdBursts::4          392                       # Per bank write bursts (Count)
system.mem_ctrls.dram.perBankRdBursts::5          326                       # Per bank write bursts (Count)
system.mem_ctrls.dram.perBankRdBursts::6          232                       # Per bank write bursts (Count)
system.mem_ctrls.dram.perBankRdBursts::7          238                       # Per bank write bursts (Count)
system.mem_ctrls.dram.perBankRdBursts::8          195                       # Per bank write bursts (Count)
system.mem_ctrls.dram.perBankRdBursts::9          229                       # Per bank write bursts (Count)
system.mem_ctrls.dram.perBankRdBursts::10          339                       # Per bank write bursts (Count)
system.mem_ctrls.dram.perBankRdBursts::11          464                       # Per bank write bursts (Count)
system.mem_ctrls.dram.perBankRdBursts::12          245                       # Per bank write bursts (Count)
system.mem_ctrls.dram.perBankRdBursts::13          169                       # Per bank write bursts (Count)
system.mem_ctrls.dram.perBankRdBursts::14          193                       # Per bank write bursts (Count)
system.mem_ctrls.dram.perBankRdBursts::15          169                       # Per bank write bursts (Count)
system.mem_ctrls.dram.perBankWrBursts::0           60                       # Per bank write bursts (Count)
system.mem_ctrls.dram.perBankWrBursts::1          128                       # Per bank write bursts (Count)
system.mem_ctrls.dram.perBankWrBursts::2          146                       # Per bank write bursts (Count)
system.mem_ctrls.dram.perBankWrBursts::3           65                       # Per bank write bursts (Count)
system.mem_ctrls.dram.perBankWrBursts::4          140                       # Per bank write bursts (Count)
system.mem_ctrls.dram.perBankWrBursts::5          172                       # Per bank write bursts (Count)
system.mem_ctrls.dram.perBankWrBursts::6          137                       # Per bank write bursts (Count)
system.mem_ctrls.dram.perBankWrBursts::7           99                       # Per bank write bursts (Count)
system.mem_ctrls.dram.perBankWrBursts::8           92                       # Per bank write bursts (Count)
system.mem_ctrls.dram.perBankWrBursts::9           91                       # Per bank write bursts (Count)
system.mem_ctrls.dram.perBankWrBursts::10          167                       # Per bank write bursts (Count)
system.mem_ctrls.dram.perBankWrBursts::11          203                       # Per bank write bursts (Count)
system.mem_ctrls.dram.perBankWrBursts::12           78                       # Per bank write bursts (Count)
system.mem_ctrls.dram.perBankWrBursts::13           57                       # Per bank write bursts (Count)
system.mem_ctrls.dram.perBankWrBursts::14           37                       # Per bank write bursts (Count)
system.mem_ctrls.dram.perBankWrBursts::15           19                       # Per bank write bursts (Count)
system.mem_ctrls.dram.totQLat                48828000                       # Total ticks spent queuing (Tick)
system.mem_ctrls.dram.totBusLat              21655000                       # Total ticks spent in databus transfers (Tick)
system.mem_ctrls.dram.totMemAccLat          130034250                       # Total ticks spent from burst creation until serviced by the DRAM (Tick)
system.mem_ctrls.dram.avgQLat                11274.07                       # Average queueing delay per DRAM burst ((Tick/Count))
system.mem_ctrls.dram.avgBusLat               5000.00                       # Average bus latency per DRAM burst ((Tick/Count))
system.mem_ctrls.dram.avgMemAccLat           30024.07                       # Average memory access latency per DRAM burst ((Tick/Count))
system.mem_ctrls.dram.readRowHits                3556                       # Number of row buffer hits during reads (Count)
system.mem_ctrls.dram.writeRowHits               1324                       # Number of row buffer hits during writes (Count)
system.mem_ctrls.dram.readRowHitRate            82.11                       # Row buffer hit rate for reads (Ratio)
system.mem_ctrls.dram.writeRowHitRate           78.30                       # Row buffer hit rate for writes (Ratio)
system.mem_ctrls.dram.bytesPerActivate::samples         1142                       # Bytes accessed per row activation (Byte)
system.mem_ctrls.dram.bytesPerActivate::mean   337.485114                       # Bytes accessed per row activation (Byte)
system.mem_ctrls.dram.bytesPerActivate::gmean   210.928694                       # Bytes accessed per row activation (Byte)
system.mem_ctrls.dram.bytesPerActivate::stdev   327.077615                       # Bytes accessed per row activation (Byte)
system.mem_ctrls.dram.bytesPerActivate::0-127          315     27.58%     27.58% # Bytes accessed per row activation (Byte)
system.mem_ctrls.dram.bytesPerActivate::128-255          319     27.93%     55.52% # Bytes accessed per row activation (Byte)
system.mem_ctrls.dram.bytesPerActivate::256-383          126     11.03%     66.55% # Bytes accessed per row activation (Byte)
system.mem_ctrls.dram.bytesPerActivate::384-511          101      8.84%     75.39% # Bytes accessed per row activation (Byte)
system.mem_ctrls.dram.bytesPerActivate::512-639           57      4.99%     80.39% # Bytes accessed per row activation (Byte)
system.mem_ctrls.dram.bytesPerActivate::640-767           35      3.06%     83.45% # Bytes accessed per row activation (Byte)
system.mem_ctrls.dram.bytesPerActivate::768-895           26      2.28%     85.73% # Bytes accessed per row activation (Byte)
system.mem_ctrls.dram.bytesPerActivate::896-1023           20      1.75%     87.48% # Bytes accessed per row activation (Byte)
system.mem_ctrls.dram.bytesPerActivate::1024-1151          143     12.52%    100.00% # Bytes accessed per row activation (Byte)
system.mem_ctrls.dram.bytesPerActivate::total         1142                       # Bytes accessed per row activation (Byte)
system.mem_ctrls.dram.bytesRead                277184                       # Total number of bytes read from DRAM (Byte)
system.mem_ctrls.dram.bytesWritten             108224                       # Total number of bytes written to DRAM (Byte)
system.mem_ctrls.dram.avgRdBW                4.955680                       # Average DRAM read bandwidth in MiBytes/s ((Byte/Second))
system.mem_ctrls.dram.avgWrBW                1.934901                       # Average DRAM write bandwidth in MiBytes/s ((Byte/Second))
system.mem_ctrls.dram.peakBW                 12800.00                       # Theoretical peak bandwidth in MiByte/s ((Byte/Second))
system.mem_ctrls.dram.busUtil                    0.05                       # Data bus utilization in percentage (Ratio)
system.mem_ctrls.dram.busUtilRead                0.04                       # Data bus utilization in percentage for reads (Ratio)
system.mem_ctrls.dram.busUtilWrite               0.02                       # Data bus utilization in percentage for writes (Ratio)
system.mem_ctrls.dram.pageHitRate               81.04                       # Row buffer hit rate, read and write combined (Ratio)
system.mem_ctrls.dram.power_state.pwrStateResidencyTicks::UNDEFINED  55932586500                       # Cumulative time (in ticks) in various power states (Tick)
system.mem_ctrls.dram.rank0.actEnergy         4683840                       # Energy for activate commands per rank (pJ) (Joule)
system.mem_ctrls.dram.rank0.preEnergy         2489520                       # Energy for precharge commands per rank (pJ) (Joule)
system.mem_ctrls.dram.rank0.readEnergy       16621920                       # Energy for read commands per rank (pJ) (Joule)
system.mem_ctrls.dram.rank0.writeEnergy       4943340                       # Energy for write commands per rank (pJ) (Joule)
system.mem_ctrls.dram.rank0.refreshEnergy 4414959120.000001                       # Energy for refresh commands per rank (pJ) (Joule)
system.mem_ctrls.dram.rank0.actBackEnergy    899593950                       # Energy for active background per rank (pJ) (Joule)
system.mem_ctrls.dram.rank0.preBackEnergy  20720560800                       # Energy for precharge background per rank (pJ) (Joule)
system.mem_ctrls.dram.rank0.actPowerDownEnergy            0                       # Energy for active power-down per rank (pJ) (Joule)
system.mem_ctrls.dram.rank0.prePowerDownEnergy            0                       # Energy for precharge power-down per rank (pJ) (Joule)
system.mem_ctrls.dram.rank0.selfRefreshEnergy            0                       # Energy for self refresh per rank (pJ) (Joule)
system.mem_ctrls.dram.rank0.totalEnergy   26063852490                       # Total energy per rank (pJ) (Joule)
system.mem_ctrls.dram.rank0.averagePower   465.986898                       # Core power per rank (mW) (Watt)
system.mem_ctrls.dram.rank0.totalIdleTime            0                       # Total Idle time Per DRAM Rank (Tick)
system.mem_ctrls.dram.rank0.pwrStateTime::IDLE  53860483750                       # Time in different power states (Tick)
system.mem_ctrls.dram.rank0.pwrStateTime::REF   1867580000                       # Time in different power states (Tick)
system.mem_ctrls.dram.rank0.pwrStateTime::SREF            0                       # Time in different power states (Tick)
system.mem_ctrls.dram.rank0.pwrStateTime::PRE_PDN            0                       # Time in different power states (Tick)
system.mem_ctrls.dram.rank0.pwrStateTime::ACT    204522750                       # Time in different power states (Tick)
system.mem_ctrls.dram.rank0.pwrStateTime::ACT_PDN            0                       # Time in different power states (Tick)
system.mem_ctrls.dram.rank1.actEnergy         3470040                       # Energy for activate commands per rank (pJ) (Joule)
system.mem_ctrls.dram.rank1.preEnergy         1844370                       # Energy for precharge commands per rank (pJ) (Joule)
system.mem_ctrls.dram.rank1.readEnergy       14301420                       # Energy for read commands per rank (pJ) (Joule)
system.mem_ctrls.dram.rank1.writeEnergy       3883680                       # Energy for write commands per rank (pJ) (Joule)
system.mem_ctrls.dram.rank1.refreshEnergy 4414959120.000001                       # Energy for refresh commands per rank (pJ) (Joule)
system.mem_ctrls.dram.rank1.actBackEnergy    904198980                       # Energy for active background per rank (pJ) (Joule)
system.mem_ctrls.dram.rank1.preBackEnergy  20716682880                       # Energy for precharge background per rank (pJ) (Joule)
system.mem_ctrls.dram.rank1.actPowerDownEnergy            0                       # Energy for active power-down per rank (pJ) (Joule)
system.mem_ctrls.dram.rank1.prePowerDownEnergy            0                       # Energy for precharge power-down per rank (pJ) (Joule)
system.mem_ctrls.dram.rank1.selfRefreshEnergy            0                       # Energy for self refresh per rank (pJ) (Joule)
system.mem_ctrls.dram.rank1.totalEnergy   26059340490                       # Total energy per rank (pJ) (Joule)
system.mem_ctrls.dram.rank1.averagePower   465.906230                       # Core power per rank (mW) (Watt)
system.mem_ctrls.dram.rank1.totalIdleTime            0                       # Total Idle time Per DRAM Rank (Tick)
system.mem_ctrls.dram.rank1.pwrStateTime::IDLE  53850424250                       # Time in different power states (Tick)
system.mem_ctrls.dram.rank1.pwrStateTime::REF   1867580000                       # Time in different power states (Tick)
system.mem_ctrls.dram.rank1.pwrStateTime::SREF            0                       # Time in different power states (Tick)
system.mem_ctrls.dram.rank1.pwrStateTime::PRE_PDN            0                       # Time in different power states (Tick)
system.mem_ctrls.dram.rank1.pwrStateTime::ACT    214582250                       # Time in different power states (Tick)
system.mem_ctrls.dram.rank1.pwrStateTime::ACT_PDN            0                       # Time in different power states (Tick)
system.mem_ctrls.power_state.pwrStateResidencyTicks::UNDEFINED  55932586500                       # Cumulative time (in ticks) in various power states (Tick)
system.membus.transDist::ReadResp                3826                       # Transaction distribution (Count)
system.membus.transDist::WritebackDirty           546                       # Transaction distribution (Count)
system.membus.transDist::WritebackClean          1186                       # Transaction distribution (Count)
system.membus.transDist::CleanEvict              1410                       # Transaction distribution (Count)
system.membus.transDist::ReadExReq                595                       # Transaction distribution (Count)
system.membus.transDist::ReadExResp               595                       # Transaction distribution (Count)
system.membus.transDist::ReadCleanReq            1442                       # Transaction distribution (Count)
system.membus.transDist::ReadSharedReq           2384                       # Transaction distribution (Count)
system.membus.pktCount_system.cpu.icache.mem_side_port::system.mem_ctrls.port         4069                       # Packet count per connected requestor and responder (Count)
system.membus.pktCount_system.cpu.icache.mem_side_port::total         4069                       # Packet count per connected requestor and responder (Count)
system.membus.pktCount_system.cpu.dcache.mem_side_port::system.mem_ctrls.port         7914                       # Packet count per connected requestor and responder (Count)
system.membus.pktCount_system.cpu.dcache.mem_side_port::total         7914                       # Packet count per connected requestor and responder (Count)
system.membus.pktCount::total                   11983                       # Packet count per connected requestor and responder (Count)
system.membus.pktSize_system.cpu.icache.mem_side_port::system.mem_ctrls.port       168128                       # Cumulative packet size per connected requestor and responder (Byte)
system.membus.pktSize_system.cpu.icache.mem_side_port::total       168128                       # Cumulative packet size per connected requestor and responder (Byte)
system.membus.pktSize_system.cpu.dcache.mem_side_port::system.mem_ctrls.port       225600                       # Cumulative packet size per connected requestor and responder (Byte)
system.membus.pktSize_system.cpu.dcache.mem_side_port::total       225600                       # Cumulative packet size per connected requestor and responder (Byte)
system.membus.pktSize::total                   393728                       # Cumulative packet size per connected requestor and responder (Byte)
system.membus.snoops                                1                       # Total snoops (Count)
system.membus.snoopTraffic                         64                       # Total snoop traffic (Byte)
system.membus.snoopFanout::samples               4421                       # Request fanout histogram
system.membus.snoopFanout::mean              0.001131                       # Request fanout histogram
system.membus.snoopFanout::stdev             0.033615                       # Request fanout histogram
system.membus.snoopFanout::underflows               0      0.00%      0.00% # Request fanout histogram
system.membus.snoopFanout::0                     4416     99.89%     99.89% # Request fanout histogram
system.membus.snoopFanout::1                        5      0.11%    100.00% # Request fanout histogram
system.membus.snoopFanout::2                        0      0.00%    100.00% # Request fanout histogram
system.membus.snoopFanout::3                        0      0.00%    100.00% # Request fanout histogram
system.membus.snoopFanout::4                        0      0.00%    100.00% # Request fanout histogram
system.membus.snoopFanout::overflows                0      0.00%    100.00% # Request fanout histogram
system.membus.snoopFanout::min_value                0                       # Request fanout histogram
system.membus.snoopFanout::max_value                1                       # Request fanout histogram
system.membus.snoopFanout::total                 4421                       # Request fanout histogram
system.membus.power_state.pwrStateResidencyTicks::UNDEFINED  55932586500                       # Cumulative time (in ticks) in various power states (Tick)
system.membus.reqLayer2.occupancy            15276500                       # Layer occupancy (ticks) (Tick)
system.membus.reqLayer2.utilization               0.0                       # Layer utilization (Ratio)
system.membus.respLayer1.occupancy            7628250                       # Layer occupancy (ticks) (Tick)
system.membus.respLayer1.utilization              0.0                       # Layer utilization (Ratio)
system.membus.respLayer2.occupancy           15798750                       # Layer occupancy (ticks) (Tick)
system.membus.respLayer2.utilization              0.0                       # Layer utilization (Ratio)
system.membus.snoop_filter.totRequests           7563                       # Total number of requests made to the snoop filter. (Count)
system.membus.snoop_filter.hitSingleRequests         3143                       # Number of requests hitting in the snoop filter with a single holder of the requested data. (Count)
system.membus.snoop_filter.hitMultiRequests            4                       # Number of requests hitting in the snoop filter with multiple (>1) holders of the requested data. (Count)
system.membus.snoop_filter.totSnoops                0                       # Total number of snoops made to the snoop filter. (Count)
system.membus.snoop_filter.hitSingleSnoops            0                       # Number of snoops hitting in the snoop filter with a single holder of the requested data. (Count)
system.membus.snoop_filter.hitMultiSnoops            0                       # Number of snoops hitting in the snoop filter with multiple (>1) holders of the requested data. (Count)
system.voltage_domain.voltage                       1                       # Voltage in Volts (Volt)
system.workload.inst.arm                            0                       # number of arm instructions executed (Count)
system.workload.inst.quiesce                        0                       # number of quiesce instructions executed (Count)

---------- End Simulation Statistics   ----------
